data_image0
_chemical_formula_structural       Si15O30H8Al40
_chemical_formula_sum              "Si15 O30 H8 Al40"
_cell_length_a       8.6348
_cell_length_b       5.47853
_cell_length_c       35.8554
_cell_angle_alpha    90
_cell_angle_beta     90
_cell_angle_gamma    90

_space_group_name_H-M_alt    "P 1"
_space_group_IT_number       1

loop_
  _space_group_symop_operation_xyz
  'x, y, z'

loop_
  _atom_site_type_symbol
  _atom_site_label
  _atom_site_symmetry_multiplicity
  _atom_site_fract_x
  _atom_site_fract_y
  _atom_site_fract_z
  _atom_site_occupancy
  Si  Si1       1.0  0.79086  0.17907  0.05045  1.0000
  Si  Si2       1.0  0.26200  0.84573  0.05045  1.0000
  Si  Si3       1.0  0.52643  0.51240  0.02171  1.0000
  Si  Si4       1.0  0.29086  0.17907  0.11997  1.0000
  Si  Si5       1.0  0.76200  0.84573  0.11997  1.0000
  Si  Si6       1.0  0.02643  0.51240  0.09123  1.0000
  Si  Si7       1.0  0.79086  0.17907  0.18949  1.0000
  Si  Si8       1.0  0.26200  0.84573  0.18949  1.0000
  Si  Si9       1.0  0.52643  0.51240  0.16075  1.0000
  Si  Si10      1.0  0.29086  0.17907  0.25901  1.0000
  Si  Si11      1.0  0.76200  0.84573  0.25901  1.0000
  Si  Si12      1.0  0.02643  0.51240  0.23027  1.0000
  Si  Si13      1.0  0.79086  0.17907  0.32853  1.0000
  Si  Si14      1.0  0.26200  0.84573  0.32853  1.0000
  Si  Si15      1.0  0.52643  0.51240  0.29979  1.0000
  O   O1        1.0  0.73345  0.96627  0.07909  1.0000
  O   O2        1.0  0.95216  0.29960  0.06494  1.0000
  O   O3        1.0  0.39368  0.63293  0.04811  1.0000
  O   O4        1.0  0.31941  0.05853  0.07909  1.0000
  O   O5        1.0  0.10070  0.72520  0.06494  1.0000
  O   O6        1.0  0.65918  0.39187  0.04811  1.0000
  O   O7        1.0  0.23345  0.96627  0.14860  1.0000
  O   O8        1.0  0.45216  0.29960  0.13446  1.0000
  O   O9        1.0  0.89368  0.63293  0.11763  1.0000
  O   O10       1.0  0.81941  0.05853  0.14860  1.0000
  O   O11       1.0  0.60070  0.72520  0.13446  1.0000
  O   O12       1.0  0.15918  0.39187  0.11763  1.0000
  O   O13       1.0  0.73345  0.96627  0.21812  1.0000
  O   O14       1.0  0.95216  0.29960  0.20398  1.0000
  O   O15       1.0  0.39368  0.63293  0.18715  1.0000
  O   O16       1.0  0.31941  0.05853  0.21812  1.0000
  O   O17       1.0  0.10070  0.72520  0.20398  1.0000
  O   O18       1.0  0.65918  0.39187  0.18715  1.0000
  O   O19       1.0  0.23345  0.96627  0.28764  1.0000
  O   O20       1.0  0.45216  0.29960  0.27350  1.0000
  O   O21       1.0  0.89368  0.63293  0.25666  1.0000
  O   O22       1.0  0.81941  0.05853  0.28764  1.0000
  O   O23       1.0  0.60070  0.72520  0.27350  1.0000
  O   O24       1.0  0.15918  0.39187  0.25666  1.0000
  O   O25       1.0  0.73345  0.96627  0.35716  1.0000
  O   O26       1.0  0.95216  0.29960  0.34302  1.0000
  O   O27       1.0  0.39368  0.63293  0.32618  1.0000
  O   O28       1.0  0.31941  0.05853  0.35716  1.0000
  O   O29       1.0  0.10070  0.72520  0.34302  1.0000
  O   O30       1.0  0.65918  0.39187  0.32618  1.0000
  H   H1        1.0  0.26200  0.84573  0.02395  1.0000
  H   H2        1.0  0.79086  0.17907  0.02395  1.0000
  H   H3        1.0  0.47431  0.38463  0.00916  1.0000
  H   H4        1.0  0.57275  0.64017  0.00916  1.0000
  H   H5        1.0  0.73345  0.96627  0.38366  1.0000
  H   H6        1.0  0.95216  0.29960  0.36951  1.0000
  H   H7        1.0  0.31941  0.05853  0.38366  1.0000
  H   H8        1.0  0.10070  0.72520  0.36951  1.0000
  Al  Al1       1.0  0.12899  0.25869  0.43491  1.0000
  Al  Al2       1.0  0.37899  0.75869  0.43491  1.0000
  Al  Al3       1.0  0.12899  0.75869  0.49139  1.0000
  Al  Al4       1.0  0.37899  0.25869  0.49139  1.0000
  Al  Al5       1.0  0.12899  0.25869  0.54787  1.0000
  Al  Al6       1.0  0.37899  0.75869  0.54787  1.0000
  Al  Al7       1.0  0.12899  0.75869  0.60435  1.0000
  Al  Al8       1.0  0.37899  0.25869  0.60435  1.0000
  Al  Al9       1.0  0.12899  0.25869  0.66082  1.0000
  Al  Al10      1.0  0.37899  0.75869  0.66082  1.0000
  Al  Al11      1.0  0.12899  0.75869  0.71730  1.0000
  Al  Al12      1.0  0.37899  0.25869  0.71730  1.0000
  Al  Al13      1.0  0.12899  0.25869  0.77378  1.0000
  Al  Al14      1.0  0.37899  0.75869  0.77378  1.0000
  Al  Al15      1.0  0.12899  0.75869  0.83025  1.0000
  Al  Al16      1.0  0.37899  0.25869  0.83025  1.0000
  Al  Al17      1.0  0.12899  0.25869  0.88673  1.0000
  Al  Al18      1.0  0.37899  0.75869  0.88673  1.0000
  Al  Al19      1.0  0.12899  0.75869  0.94321  1.0000
  Al  Al20      1.0  0.37899  0.25869  0.94321  1.0000
  Al  Al21      1.0  0.62899  0.25869  0.43491  1.0000
  Al  Al22      1.0  0.87899  0.75869  0.43491  1.0000
  Al  Al23      1.0  0.62899  0.75869  0.49139  1.0000
  Al  Al24      1.0  0.87899  0.25869  0.49139  1.0000
  Al  Al25      1.0  0.62899  0.25869  0.54787  1.0000
  Al  Al26      1.0  0.87899  0.75869  0.54787  1.0000
  Al  Al27      1.0  0.62899  0.75869  0.60435  1.0000
  Al  Al28      1.0  0.87899  0.25869  0.60435  1.0000
  Al  Al29      1.0  0.62899  0.25869  0.66082  1.0000
  Al  Al30      1.0  0.87899  0.75869  0.66082  1.0000
  Al  Al31      1.0  0.62899  0.75869  0.71730  1.0000
  Al  Al32      1.0  0.87899  0.25869  0.71730  1.0000
  Al  Al33      1.0  0.62899  0.25869  0.77378  1.0000
  Al  Al34      1.0  0.87899  0.75869  0.77378  1.0000
  Al  Al35      1.0  0.62899  0.75869  0.83025  1.0000
  Al  Al36      1.0  0.87899  0.25869  0.83025  1.0000
  Al  Al37      1.0  0.62899  0.25869  0.88673  1.0000
  Al  Al38      1.0  0.87899  0.75869  0.88673  1.0000
  Al  Al39      1.0  0.62899  0.75869  0.94321  1.0000
  Al  Al40      1.0  0.87899  0.25869  0.94321  1.0000
