data_image0
_chemical_formula_structural       Si30O60H8Al80
_chemical_formula_sum              "Si30 O60 H8 Al80"
_cell_length_a       8.6348
_cell_length_b       5.47853
_cell_length_c       68.6523
_cell_angle_alpha    90
_cell_angle_beta     90
_cell_angle_gamma    90

_space_group_name_H-M_alt    "P 1"
_space_group_IT_number       1

loop_
  _space_group_symop_operation_xyz
  'x, y, z'

loop_
  _atom_site_type_symbol
  _atom_site_label
  _atom_site_symmetry_multiplicity
  _atom_site_fract_x
  _atom_site_fract_y
  _atom_site_fract_z
  _atom_site_occupancy
  Si  Si1       1.0  0.79715  0.17073  0.02867  1.0000
  Si  Si2       1.0  0.26829  0.83740  0.02867  1.0000
  Si  Si3       1.0  0.53272  0.50406  0.01366  1.0000
  Si  Si4       1.0  0.29715  0.17073  0.06498  1.0000
  Si  Si5       1.0  0.76829  0.83740  0.06498  1.0000
  Si  Si6       1.0  0.03272  0.50406  0.04997  1.0000
  Si  Si7       1.0  0.79715  0.17073  0.10129  1.0000
  Si  Si8       1.0  0.26829  0.83740  0.10129  1.0000
  Si  Si9       1.0  0.53272  0.50406  0.08627  1.0000
  Si  Si10      1.0  0.29715  0.17073  0.13759  1.0000
  Si  Si11      1.0  0.76829  0.83740  0.13759  1.0000
  Si  Si12      1.0  0.03272  0.50406  0.12258  1.0000
  Si  Si13      1.0  0.79715  0.17073  0.17390  1.0000
  Si  Si14      1.0  0.26829  0.83740  0.17390  1.0000
  Si  Si15      1.0  0.53272  0.50406  0.15889  1.0000
  Si  Si16      1.0  0.29715  0.17073  0.21021  1.0000
  Si  Si17      1.0  0.76829  0.83740  0.21021  1.0000
  Si  Si18      1.0  0.03272  0.50406  0.19520  1.0000
  Si  Si19      1.0  0.79715  0.17073  0.24652  1.0000
  Si  Si20      1.0  0.26829  0.83740  0.24652  1.0000
  Si  Si21      1.0  0.53272  0.50406  0.23151  1.0000
  Si  Si22      1.0  0.29715  0.17073  0.28283  1.0000
  Si  Si23      1.0  0.76829  0.83740  0.28283  1.0000
  Si  Si24      1.0  0.03272  0.50406  0.26782  1.0000
  Si  Si25      1.0  0.79715  0.17073  0.31914  1.0000
  Si  Si26      1.0  0.26829  0.83740  0.31914  1.0000
  Si  Si27      1.0  0.53272  0.50406  0.30412  1.0000
  Si  Si28      1.0  0.29715  0.17073  0.35544  1.0000
  Si  Si29      1.0  0.76829  0.83740  0.35544  1.0000
  Si  Si30      1.0  0.03272  0.50406  0.34043  1.0000
  O   O1        1.0  0.73974  0.95793  0.04362  1.0000
  O   O2        1.0  0.95845  0.29126  0.03623  1.0000
  O   O3        1.0  0.39997  0.62460  0.02744  1.0000
  O   O4        1.0  0.32570  0.05020  0.04362  1.0000
  O   O5        1.0  0.10699  0.71686  0.03623  1.0000
  O   O6        1.0  0.66546  0.38353  0.02744  1.0000
  O   O7        1.0  0.23974  0.95793  0.07993  1.0000
  O   O8        1.0  0.45845  0.29126  0.07254  1.0000
  O   O9        1.0  0.89997  0.62460  0.06375  1.0000
  O   O10       1.0  0.82570  0.05020  0.07993  1.0000
  O   O11       1.0  0.60699  0.71686  0.07254  1.0000
  O   O12       1.0  0.16546  0.38353  0.06375  1.0000
  O   O13       1.0  0.73974  0.95793  0.11624  1.0000
  O   O14       1.0  0.95845  0.29126  0.10885  1.0000
  O   O15       1.0  0.39997  0.62460  0.10006  1.0000
  O   O16       1.0  0.32570  0.05020  0.11624  1.0000
  O   O17       1.0  0.10699  0.71686  0.10885  1.0000
  O   O18       1.0  0.66546  0.38353  0.10006  1.0000
  O   O19       1.0  0.23974  0.95793  0.15255  1.0000
  O   O20       1.0  0.45845  0.29126  0.14516  1.0000
  O   O21       1.0  0.89997  0.62460  0.13637  1.0000
  O   O22       1.0  0.82570  0.05020  0.15255  1.0000
  O   O23       1.0  0.60699  0.71686  0.14516  1.0000
  O   O24       1.0  0.16546  0.38353  0.13637  1.0000
  O   O25       1.0  0.73974  0.95793  0.18886  1.0000
  O   O26       1.0  0.95845  0.29126  0.18147  1.0000
  O   O27       1.0  0.39997  0.62460  0.17268  1.0000
  O   O28       1.0  0.32570  0.05020  0.18886  1.0000
  O   O29       1.0  0.10699  0.71686  0.18147  1.0000
  O   O30       1.0  0.66546  0.38353  0.17268  1.0000
  O   O31       1.0  0.23974  0.95793  0.22517  1.0000
  O   O32       1.0  0.45845  0.29126  0.21778  1.0000
  O   O33       1.0  0.89997  0.62460  0.20899  1.0000
  O   O34       1.0  0.82570  0.05020  0.22517  1.0000
  O   O35       1.0  0.60699  0.71686  0.21778  1.0000
  O   O36       1.0  0.16546  0.38353  0.20899  1.0000
  O   O37       1.0  0.73974  0.95793  0.26147  1.0000
  O   O38       1.0  0.95845  0.29126  0.25408  1.0000
  O   O39       1.0  0.39997  0.62460  0.24529  1.0000
  O   O40       1.0  0.32570  0.05020  0.26147  1.0000
  O   O41       1.0  0.10699  0.71686  0.25408  1.0000
  O   O42       1.0  0.66546  0.38353  0.24529  1.0000
  O   O43       1.0  0.23974  0.95793  0.29778  1.0000
  O   O44       1.0  0.45845  0.29126  0.29039  1.0000
  O   O45       1.0  0.89997  0.62460  0.28160  1.0000
  O   O46       1.0  0.82570  0.05020  0.29778  1.0000
  O   O47       1.0  0.60699  0.71686  0.29039  1.0000
  O   O48       1.0  0.16546  0.38353  0.28160  1.0000
  O   O49       1.0  0.73974  0.95793  0.33409  1.0000
  O   O50       1.0  0.95845  0.29126  0.32670  1.0000
  O   O51       1.0  0.39997  0.62460  0.31791  1.0000
  O   O52       1.0  0.32570  0.05020  0.33409  1.0000
  O   O53       1.0  0.10699  0.71686  0.32670  1.0000
  O   O54       1.0  0.66546  0.38353  0.31791  1.0000
  O   O55       1.0  0.23974  0.95793  0.37040  1.0000
  O   O56       1.0  0.45845  0.29126  0.36301  1.0000
  O   O57       1.0  0.89997  0.62460  0.35422  1.0000
  O   O58       1.0  0.82570  0.05020  0.37040  1.0000
  O   O59       1.0  0.60699  0.71686  0.36301  1.0000
  O   O60       1.0  0.16546  0.38353  0.35422  1.0000
  H   H1        1.0  0.26829  0.83740  0.01483  1.0000
  H   H2        1.0  0.79715  0.17073  0.01483  1.0000
  H   H3        1.0  0.48060  0.37629  0.00710  1.0000
  H   H4        1.0  0.57904  0.63183  0.00710  1.0000
  H   H5        1.0  0.23974  0.95793  0.38424  1.0000
  H   H6        1.0  0.45845  0.29126  0.37685  1.0000
  H   H7        1.0  0.82570  0.05020  0.38424  1.0000
  H   H8        1.0  0.60699  0.71686  0.37685  1.0000
  Al  Al1       1.0  0.12331  0.24909  0.41191  1.0000
  Al  Al2       1.0  0.37331  0.74909  0.41191  1.0000
  Al  Al3       1.0  0.12331  0.74909  0.44141  1.0000
  Al  Al4       1.0  0.37331  0.24909  0.44141  1.0000
  Al  Al5       1.0  0.12331  0.24909  0.47090  1.0000
  Al  Al6       1.0  0.37331  0.74909  0.47090  1.0000
  Al  Al7       1.0  0.12331  0.74909  0.50040  1.0000
  Al  Al8       1.0  0.37331  0.24909  0.50040  1.0000
  Al  Al9       1.0  0.12331  0.24909  0.52990  1.0000
  Al  Al10      1.0  0.37331  0.74909  0.52990  1.0000
  Al  Al11      1.0  0.12331  0.74909  0.55939  1.0000
  Al  Al12      1.0  0.37331  0.24909  0.55939  1.0000
  Al  Al13      1.0  0.12331  0.24909  0.58889  1.0000
  Al  Al14      1.0  0.37331  0.74909  0.58889  1.0000
  Al  Al15      1.0  0.12331  0.74909  0.61839  1.0000
  Al  Al16      1.0  0.37331  0.24909  0.61839  1.0000
  Al  Al17      1.0  0.12331  0.24909  0.64788  1.0000
  Al  Al18      1.0  0.37331  0.74909  0.64788  1.0000
  Al  Al19      1.0  0.12331  0.74909  0.67738  1.0000
  Al  Al20      1.0  0.37331  0.24909  0.67738  1.0000
  Al  Al21      1.0  0.12331  0.24909  0.70688  1.0000
  Al  Al22      1.0  0.37331  0.74909  0.70688  1.0000
  Al  Al23      1.0  0.12331  0.74909  0.73637  1.0000
  Al  Al24      1.0  0.37331  0.24909  0.73637  1.0000
  Al  Al25      1.0  0.12331  0.24909  0.76587  1.0000
  Al  Al26      1.0  0.37331  0.74909  0.76587  1.0000
  Al  Al27      1.0  0.12331  0.74909  0.79537  1.0000
  Al  Al28      1.0  0.37331  0.24909  0.79537  1.0000
  Al  Al29      1.0  0.12331  0.24909  0.82486  1.0000
  Al  Al30      1.0  0.37331  0.74909  0.82486  1.0000
  Al  Al31      1.0  0.12331  0.74909  0.85436  1.0000
  Al  Al32      1.0  0.37331  0.24909  0.85436  1.0000
  Al  Al33      1.0  0.12331  0.24909  0.88385  1.0000
  Al  Al34      1.0  0.37331  0.74909  0.88385  1.0000
  Al  Al35      1.0  0.12331  0.74909  0.91335  1.0000
  Al  Al36      1.0  0.37331  0.24909  0.91335  1.0000
  Al  Al37      1.0  0.12331  0.24909  0.94285  1.0000
  Al  Al38      1.0  0.37331  0.74909  0.94285  1.0000
  Al  Al39      1.0  0.12331  0.74909  0.97234  1.0000
  Al  Al40      1.0  0.37331  0.24909  0.97234  1.0000
  Al  Al41      1.0  0.62331  0.24909  0.41191  1.0000
  Al  Al42      1.0  0.87331  0.74909  0.41191  1.0000
  Al  Al43      1.0  0.62331  0.74909  0.44141  1.0000
  Al  Al44      1.0  0.87331  0.24909  0.44141  1.0000
  Al  Al45      1.0  0.62331  0.24909  0.47090  1.0000
  Al  Al46      1.0  0.87331  0.74909  0.47090  1.0000
  Al  Al47      1.0  0.62331  0.74909  0.50040  1.0000
  Al  Al48      1.0  0.87331  0.24909  0.50040  1.0000
  Al  Al49      1.0  0.62331  0.24909  0.52990  1.0000
  Al  Al50      1.0  0.87331  0.74909  0.52990  1.0000
  Al  Al51      1.0  0.62331  0.74909  0.55939  1.0000
  Al  Al52      1.0  0.87331  0.24909  0.55939  1.0000
  Al  Al53      1.0  0.62331  0.24909  0.58889  1.0000
  Al  Al54      1.0  0.87331  0.74909  0.58889  1.0000
  Al  Al55      1.0  0.62331  0.74909  0.61839  1.0000
  Al  Al56      1.0  0.87331  0.24909  0.61839  1.0000
  Al  Al57      1.0  0.62331  0.24909  0.64788  1.0000
  Al  Al58      1.0  0.87331  0.74909  0.64788  1.0000
  Al  Al59      1.0  0.62331  0.74909  0.67738  1.0000
  Al  Al60      1.0  0.87331  0.24909  0.67738  1.0000
  Al  Al61      1.0  0.62331  0.24909  0.70688  1.0000
  Al  Al62      1.0  0.87331  0.74909  0.70688  1.0000
  Al  Al63      1.0  0.62331  0.74909  0.73637  1.0000
  Al  Al64      1.0  0.87331  0.24909  0.73637  1.0000
  Al  Al65      1.0  0.62331  0.24909  0.76587  1.0000
  Al  Al66      1.0  0.87331  0.74909  0.76587  1.0000
  Al  Al67      1.0  0.62331  0.74909  0.79537  1.0000
  Al  Al68      1.0  0.87331  0.24909  0.79537  1.0000
  Al  Al69      1.0  0.62331  0.24909  0.82486  1.0000
  Al  Al70      1.0  0.87331  0.74909  0.82486  1.0000
  Al  Al71      1.0  0.62331  0.74909  0.85436  1.0000
  Al  Al72      1.0  0.87331  0.24909  0.85436  1.0000
  Al  Al73      1.0  0.62331  0.24909  0.88385  1.0000
  Al  Al74      1.0  0.87331  0.74909  0.88385  1.0000
  Al  Al75      1.0  0.62331  0.74909  0.91335  1.0000
  Al  Al76      1.0  0.87331  0.24909  0.91335  1.0000
  Al  Al77      1.0  0.62331  0.24909  0.94285  1.0000
  Al  Al78      1.0  0.87331  0.74909  0.94285  1.0000
  Al  Al79      1.0  0.62331  0.74909  0.97234  1.0000
  Al  Al80      1.0  0.87331  0.24909  0.97234  1.0000
