data_image0
_chemical_formula_structural       Fe28W8
_chemical_formula_sum              "Fe28 W8"
_cell_length_a       2.86814
_cell_length_b       4.05618
_cell_length_c       36
_cell_angle_alpha    90
_cell_angle_beta     90
_cell_angle_gamma    90

_space_group_name_H-M_alt    "P 1"
_space_group_IT_number       1

loop_
  _space_group_symop_operation_xyz
  'x, y, z'

loop_
  _atom_site_type_symbol
  _atom_site_label
  _atom_site_symmetry_multiplicity
  _atom_site_fract_x
  _atom_site_fract_y
  _atom_site_fract_z
  _atom_site_occupancy
  Fe  Fe1       1.0  0.00000  0.25000  0.02778  1.0000
  Fe  Fe2       1.0  0.00000  0.75000  0.97222  1.0000
  Fe  Fe3       1.0  0.50000  0.75000  0.02778  1.0000
  Fe  Fe4       1.0  0.50000  0.25000  0.97222  1.0000
  Fe  Fe5       1.0  0.00000  0.75000  0.08333  1.0000
  Fe  Fe6       1.0  0.00000  0.25000  0.91667  1.0000
  Fe  Fe7       1.0  0.50000  0.25000  0.08333  1.0000
  Fe  Fe8       1.0  0.50000  0.75000  0.91667  1.0000
  Fe  Fe9       1.0  0.00000  0.25000  0.13889  1.0000
  Fe  Fe10      1.0  0.00000  0.75000  0.86111  1.0000
  Fe  Fe11      1.0  0.50000  0.75000  0.13889  1.0000
  Fe  Fe12      1.0  0.50000  0.25000  0.86111  1.0000
  Fe  Fe13      1.0  0.00000  0.75000  0.19444  1.0000
  Fe  Fe14      1.0  0.00000  0.25000  0.80556  1.0000
  Fe  Fe15      1.0  0.50000  0.25000  0.19444  1.0000
  Fe  Fe16      1.0  0.50000  0.75000  0.80556  1.0000
  Fe  Fe17      1.0  0.00000  0.25000  0.25000  1.0000
  Fe  Fe18      1.0  0.00000  0.75000  0.75000  1.0000
  Fe  Fe19      1.0  0.50000  0.75000  0.25000  1.0000
  Fe  Fe20      1.0  0.50000  0.25000  0.75000  1.0000
  Fe  Fe21      1.0  0.00000  0.75000  0.30556  1.0000
  Fe  Fe22      1.0  0.00000  0.25000  0.69444  1.0000
  Fe  Fe23      1.0  0.50000  0.25000  0.30556  1.0000
  Fe  Fe24      1.0  0.50000  0.75000  0.69444  1.0000
  Fe  Fe25      1.0  0.00000  0.25000  0.36111  1.0000
  Fe  Fe26      1.0  0.00000  0.75000  0.63889  1.0000
  Fe  Fe27      1.0  0.50000  0.75000  0.36111  1.0000
  Fe  Fe28      1.0  0.50000  0.25000  0.63889  1.0000
  W   W1        1.0  0.00000  0.75000  0.41667  1.0000
  W   W2        1.0  0.00000  0.25000  0.58333  1.0000
  W   W3        1.0  0.50000  0.25000  0.41667  1.0000
  W   W4        1.0  0.50000  0.75000  0.58333  1.0000
  W   W5        1.0  0.00000  0.25000  0.47222  1.0000
  W   W6        1.0  0.00000  0.75000  0.52778  1.0000
  W   W7        1.0  0.50000  0.75000  0.47222  1.0000
  W   W8        1.0  0.50000  0.25000  0.52778  1.0000
